/models/NEMO/beaudoinjf/CANOPA_IRE/modipsl/modeles/NEMO/TOP_SRC/lifemaker3D.F90
/models/NEMO/beaudoinjf/CANOPA_IRE/modipsl/modeles/NEMO/TOP_SRC/#lifemaker3D.F90#
